docs/schema/pio-payload-balanced/1/schema.json
{
  "$defs": {
    "Area": {
      "description": "An area record: the area's scheduled net interchange and its swing bus.\n\nThe [`number`](Area::number) matches the `area` field carried on each\n[`Bus`]; this table holds the per-area metadata (the interchange target and\nthe area slack) that the bus number alone can't. Maps to the PSS/E area record\n(`I, ISW, PDES, PTOL, ARNAME`).",
      "properties": {
        "name": {
          "type": [
            "string",
            "null"
          ]
        },
        "net_interchange": {
          "description": "Scheduled net interchange (MW); positive is export out of the area.",
          "format": "double",
          "type": "number"
        },
        "number": {
          "format": "uint",
          "minimum": 0,
          "type": "integer"
        },
        "slack_bus": {
          "anyOf": [
            {
              "$ref": "#/$defs/BusId"
            },
            {
              "type": "null"
            }
          ],
          "description": "The area swing (slack) bus, or `None` when unset."
        },
        "tolerance": {
          "description": "Interchange tolerance bandwidth (MW).",
          "format": "double",
          "type": "number"
        }
      },
      "required": [
        "number",
        "net_interchange",
        "tolerance"
      ],
      "type": "object"
    },
    "Branch": {
      "properties": {
        "angmax": {
          "format": "double",
          "type": "number"
        },
        "angmin": {
          "format": "double",
          "type": "number"
        },
        "b": {
          "description": "MATPOWER compatible total line charging susceptance (p.u.). This is the\nlegacy total projection; when [`charging`](Branch::charging) is present,\nper terminal admittance is canonical and this field is compatibility data.",
          "format": "double",
          "type": "number"
        },
        "charging": {
          "anyOf": [
            {
              "$ref": "#/$defs/BranchCharging"
            },
            {
              "type": "null"
            }
          ],
          "default": null,
          "description": "Per terminal shunt admittance (p.u.). If absent, derive symmetric\nsusceptance from [`b`](Branch::b)."
        },
        "control": {
          "anyOf": [
            {
              "$ref": "#/$defs/TransformerControl"
            },
            {
              "type": "null"
            }
          ],
          "default": null,
          "description": "Regulating-transformer control data, when this branch is a transformer\nunder automatic tap or phase control. `None` for lines and for fixed-ratio\ntransformers. `#[serde(default)]` so JSON written before the field existed\nstill deserializes."
        },
        "current_ratings": {
          "anyOf": [
            {
              "$ref": "#/$defs/BranchCurrentRatings"
            },
            {
              "type": "null"
            }
          ],
          "default": null,
          "description": "Current ratings, when the source distinguishes them from MVA ratings."
        },
        "extras": {
          "additionalProperties": true,
          "type": "object"
        },
        "from": {
          "$ref": "#/$defs/BusId"
        },
        "in_service": {
          "type": "boolean"
        },
        "r": {
          "description": "Series resistance (p.u.).",
          "format": "double",
          "type": "number"
        },
        "rate_a": {
          "format": "double",
          "type": "number"
        },
        "rate_b": {
          "format": "double",
          "type": "number"
        },
        "rate_c": {
          "format": "double",
          "type": "number"
        },
        "rating_sets": {
          "default": [],
          "description": "Additional MVA rating sets beyond A/B/C. Matrix builders continue to use\n`rate_a` unless they opt into one of these named sets.",
          "items": {
            "$ref": "#/$defs/BranchRatingSet"
          },
          "type": "array"
        },
        "shift": {
          "description": "Phase shift (degrees).",
          "format": "double",
          "type": "number"
        },
        "solution": {
          "anyOf": [
            {
              "$ref": "#/$defs/BranchSolution"
            },
            {
              "type": "null"
            }
          ],
          "default": null,
          "description": "Solved branch flow values, when present in a case snapshot."
        },
        "tap": {
          "description": "Tap ratio, MATPOWER convention: 0 means \"no tap\" (a line), treated as 1.",
          "format": "double",
          "type": "number"
        },
        "to": {
          "$ref": "#/$defs/BusId"
        },
        "uid": {
          "description": "Stable row identity; see [`Bus::uid`].",
          "type": [
            "string",
            "null"
          ]
        },
        "x": {
          "description": "Series reactance (p.u.).",
          "format": "double",
          "type": "number"
        }
      },
      "required": [
        "from",
        "to",
        "r",
        "x",
        "b",
        "rate_a",
        "rate_b",
        "rate_c",
        "tap",
        "shift",
        "in_service",
        "angmin",
        "angmax",
        "extras"
      ],
      "type": "object"
    },
    "BranchCharging": {
      "description": "Per terminal branch shunt admittance in p.u. This is the canonical\nphysical branch shunt model when present.",
      "properties": {
        "b_fr": {
          "format": "double",
          "type": "number"
        },
        "b_to": {
          "format": "double",
          "type": "number"
        },
        "g_fr": {
          "format": "double",
          "type": "number"
        },
        "g_to": {
          "format": "double",
          "type": "number"
        }
      },
      "required": [
        "g_fr",
        "b_fr",
        "g_to",
        "b_to"
      ],
      "type": "object"
    },
    "BranchCurrentRatings": {
      "description": "Current limits for a branch, in source units.",
      "properties": {
        "c_rating_a": {
          "format": "double",
          "type": "number"
        },
        "c_rating_b": {
          "format": "double",
          "type": "number"
        },
        "c_rating_c": {
          "format": "double",
          "type": "number"
        }
      },
      "required": [
        "c_rating_a",
        "c_rating_b",
        "c_rating_c"
      ],
      "type": "object"
    },
    "BranchRatingSet": {
      "description": "Extra branch MVA rating set beyond the canonical A/B/C columns.",
      "properties": {
        "name": {
          "type": "string"
        },
        "rate_mva": {
          "format": "double",
          "type": "number"
        }
      },
      "required": [
        "name",
        "rate_mva"
      ],
      "type": "object"
    },
    "BranchSolution": {
      "description": "Solved branch terminal flows in MW/MVAr.",
      "properties": {
        "pf": {
          "format": "double",
          "type": "number"
        },
        "pt": {
          "format": "double",
          "type": "number"
        },
        "qf": {
          "format": "double",
          "type": "number"
        },
        "qt": {
          "format": "double",
          "type": "number"
        }
      },
      "required": [
        "pf",
        "qf",
        "pt",
        "qt"
      ],
      "type": "object"
    },
    "Bus": {
      "properties": {
        "area": {
          "format": "uint",
          "minimum": 0,
          "type": "integer"
        },
        "base_kv": {
          "format": "double",
          "type": "number"
        },
        "evhi": {
          "default": null,
          "description": "Emergency (short-term) voltage band, set only when the source states one\ndistinct from the normal [`vmax`](Bus::vmax)/[`vmin`](Bus::vmin) band (PSS/E\n`EVHI`/`EVLO`). `None` means the emergency band equals the normal band, so\nread `evhi.unwrap_or(vmax)` / `evlo.unwrap_or(vmin)`. `#[serde(default)]` so\nJSON written before the fields existed still deserializes.",
          "format": "double",
          "type": [
            "number",
            "null"
          ]
        },
        "evlo": {
          "default": null,
          "format": "double",
          "type": [
            "number",
            "null"
          ]
        },
        "extras": {
          "additionalProperties": true,
          "type": "object"
        },
        "id": {
          "$ref": "#/$defs/BusId",
          "description": "Stable bus id (1-based in MATPOWER; preserved verbatim)."
        },
        "kind": {
          "$ref": "#/$defs/BusType"
        },
        "location": {
          "anyOf": [
            {
              "$ref": "#/$defs/Location"
            },
            {
              "type": "null"
            }
          ],
          "description": "Optional bus coordinates in the network coordinate space."
        },
        "name": {
          "type": [
            "string",
            "null"
          ]
        },
        "uid": {
          "description": "Stable row identity for `.pio.json` payloads and operating point updates:\nthe source record uid where the format defines one (GOC3), synthesized at\npackage build otherwise. `#[serde(default)]` so JSON written before the\nfield existed still deserializes.",
          "type": [
            "string",
            "null"
          ]
        },
        "va": {
          "description": "Voltage angle (degrees).",
          "format": "double",
          "type": "number"
        },
        "vm": {
          "description": "Voltage magnitude (p.u.).",
          "format": "double",
          "type": "number"
        },
        "vmax": {
          "format": "double",
          "type": "number"
        },
        "vmin": {
          "format": "double",
          "type": "number"
        },
        "zone": {
          "format": "uint",
          "minimum": 0,
          "type": "integer"
        }
      },
      "required": [
        "id",
        "kind",
        "vm",
        "va",
        "base_kv",
        "vmax",
        "vmin",
        "area",
        "zone",
        "extras"
      ],
      "type": "object"
    },
    "BusId": {
      "description": "A bus identifier as it appears in the source file: the external, stable id\n(1-based in MATPOWER, and possibly sparse; pegase has gaps in its ids).\nDistinct from the dense `[0, n)` analysis index, which only\n[`IndexedNetwork`](crate::IndexedNetwork) produces, via\n[`bus_index`](crate::IndexedNetwork::bus_index). The two are both integers\nand trivially confused; making the id its own type stops one being used where\nthe other is meant (using a 1-based id to index a matrix is off-by-one on a\ncontiguous case and pure garbage on a sparse one).\n\n`#[serde(transparent)]` so the JSON transport carries a bare integer, not a\nwrapper object; the wire format is unchanged.",
      "format": "uint",
      "minimum": 0,
      "type": "integer"
    },
    "BusType": {
      "description": "Bus type per MATPOWER convention: 1=PQ, 2=PV, 3=ref/slack, 4=isolated.",
      "enum": [
        "PQ",
        "PV",
        "REF",
        "ISOLATED"
      ],
      "type": "string"
    },
    "Canvas": {
      "description": "Diagram canvas metadata.",
      "properties": {
        "height": {
          "format": "double",
          "type": [
            "number",
            "null"
          ]
        },
        "units": {
          "type": [
            "string",
            "null"
          ]
        },
        "width": {
          "format": "double",
          "type": [
            "number",
            "null"
          ]
        }
      },
      "type": "object"
    },
    "CoordsKind": {
      "description": "Coordinate provenance.",
      "enum": [
        "source",
        "synthetic",
        "manual",
        "derived"
      ],
      "type": "string"
    },
    "GenCost": {
      "description": "A generator cost curve (`mpc.gencost` row).",
      "properties": {
        "coeffs": {
          "description": "Raw coefficients, highest order first for the polynomial model:\n`[c_{k-1}, …, c1, c0]`.",
          "items": {
            "format": "double",
            "type": "number"
          },
          "type": "array"
        },
        "model": {
          "description": "1 = piecewise linear, 2 = polynomial.",
          "format": "uint8",
          "maximum": 255,
          "minimum": 0,
          "type": "integer"
        },
        "ncost": {
          "description": "Number of cost coefficients (polynomial) or breakpoints (piecewise).",
          "format": "uint",
          "minimum": 0,
          "type": "integer"
        },
        "shutdown": {
          "format": "double",
          "type": "number"
        },
        "startup": {
          "format": "double",
          "type": "number"
        }
      },
      "required": [
        "model",
        "startup",
        "shutdown",
        "ncost",
        "coeffs"
      ],
      "type": "object"
    },
    "Generator": {
      "properties": {
        "bus": {
          "$ref": "#/$defs/BusId"
        },
        "caps": {
          "additionalProperties": {
            "format": "double",
            "type": "number"
          },
          "default": {},
          "description": "The MATPOWER gen capability / ramp columns past `PMIN`, aligned to\n`GEN_EXTRA_KEYS` by index (`None` for a column the source omitted).\nA fixed array, not an [`Extras`] map: a string-keyed map per generator\ncosts 11 heap allocations each, which dominates the parse of a large\ngenerator-heavy case. Surfaced into formats that name them (PowerModels).\nOn the JSON snapshot it is a name-keyed object (see `caps_serde`) so the\nschema stays additive when `GEN_EXTRA_KEYS` grows; `#[serde(default)]` so a\nsnapshot that omits it deserializes to the empty set.",
          "type": "object"
        },
        "cost": {
          "anyOf": [
            {
              "$ref": "#/$defs/GenCost"
            },
            {
              "type": "null"
            }
          ]
        },
        "in_service": {
          "type": "boolean"
        },
        "mbase": {
          "format": "double",
          "type": "number"
        },
        "pg": {
          "description": "Real power set point (MW).",
          "format": "double",
          "type": "number"
        },
        "pmax": {
          "format": "double",
          "type": "number"
        },
        "pmin": {
          "format": "double",
          "type": "number"
        },
        "qg": {
          "description": "Reactive power set point (MVAr).",
          "format": "double",
          "type": "number"
        },
        "qmax": {
          "format": "double",
          "type": "number"
        },
        "qmin": {
          "format": "double",
          "type": "number"
        },
        "regulated_bus": {
          "anyOf": [
            {
              "$ref": "#/$defs/BusId"
            },
            {
              "type": "null"
            }
          ],
          "default": null,
          "description": "The remote bus whose voltage this generator regulates, when that is not its\nown terminal bus (PSS/E `IREG`). `None` means it regulates its own bus.\nPart of the cross-element voltage-control graph: a format that names a\nremote regulated bus (PSS/E) keeps it across a round trip instead of\ncollapsing every generator onto its own terminal. `#[serde(default)]` so\nJSON written before the field existed still deserializes."
        },
        "uid": {
          "description": "Stable row identity; see [`Bus::uid`].",
          "type": [
            "string",
            "null"
          ]
        },
        "vg": {
          "description": "Voltage set point (p.u.).",
          "format": "double",
          "type": "number"
        }
      },
      "required": [
        "bus",
        "pg",
        "qg",
        "pmax",
        "pmin",
        "qmax",
        "qmin",
        "vg",
        "mbase",
        "in_service"
      ],
      "type": "object"
    },
    "GeoMeta": {
      "description": "Network level coordinate metadata.",
      "oneOf": [
        {
          "description": "x = longitude and y = latitude in decimal degrees. `None` means EPSG:4326.",
          "properties": {
            "crs": {
              "type": [
                "string",
                "null"
              ]
            },
            "space": {
              "const": "geographic",
              "type": "string"
            }
          },
          "required": [
            "space"
          ],
          "type": "object"
        },
        {
          "description": "Planar coordinates, with the CRS named when known.",
          "properties": {
            "crs": {
              "type": [
                "string",
                "null"
              ]
            },
            "space": {
              "const": "projected",
              "type": "string"
            }
          },
          "required": [
            "space"
          ],
          "type": "object"
        },
        {
          "description": "Drawing coordinates with no earth referent.",
          "properties": {
            "canvas": {
              "anyOf": [
                {
                  "$ref": "#/$defs/Canvas"
                },
                {
                  "type": "null"
                }
              ]
            },
            "space": {
              "const": "diagram",
              "type": "string"
            }
          },
          "required": [
            "space"
          ],
          "type": "object"
        },
        {
          "description": "The source did not declare a coordinate space.",
          "properties": {
            "space": {
              "const": "unknown",
              "type": "string"
            }
          },
          "required": [
            "space"
          ],
          "type": "object"
        }
      ],
      "properties": {
        "kind": {
          "anyOf": [
            {
              "$ref": "#/$defs/CoordsKind"
            },
            {
              "type": "null"
            }
          ],
          "description": "Default provenance for points without their own `kind`."
        }
      },
      "type": "object"
    },
    "Hvdc": {
      "description": "A two-terminal HVDC line (MATPOWER `dcline`).\n\n`pf`/`pt`/`qf`/`qt` are stored in MATPOWER's sign convention regardless of\nsource: the PowerModels reader un-flips `pt`/`qf`/`qt` on the way in, and the\nPowerModels writer re-flips them on the way out (PowerModels.jl uses the\nopposite sign). The flip is a format-boundary translation, so a derived view\nlike `to_normalized` keeps the MATPOWER convention and only scales to per unit.",
      "properties": {
        "cost": {
          "anyOf": [
            {
              "$ref": "#/$defs/GenCost"
            },
            {
              "type": "null"
            }
          ],
          "default": null
        },
        "extras": {
          "additionalProperties": true,
          "type": "object"
        },
        "from": {
          "$ref": "#/$defs/BusId"
        },
        "in_service": {
          "type": "boolean"
        },
        "loss0": {
          "format": "double",
          "type": "number"
        },
        "loss1": {
          "format": "double",
          "type": "number"
        },
        "pf": {
          "format": "double",
          "type": "number"
        },
        "pmax": {
          "format": "double",
          "type": "number"
        },
        "pmin": {
          "format": "double",
          "type": "number"
        },
        "pt": {
          "format": "double",
          "type": "number"
        },
        "qf": {
          "format": "double",
          "type": "number"
        },
        "qmaxf": {
          "format": "double",
          "type": "number"
        },
        "qmaxt": {
          "format": "double",
          "type": "number"
        },
        "qminf": {
          "format": "double",
          "type": "number"
        },
        "qmint": {
          "format": "double",
          "type": "number"
        },
        "qt": {
          "format": "double",
          "type": "number"
        },
        "to": {
          "$ref": "#/$defs/BusId"
        },
        "uid": {
          "description": "Stable row identity; see [`Bus::uid`].",
          "type": [
            "string",
            "null"
          ]
        },
        "vf": {
          "format": "double",
          "type": "number"
        },
        "vt": {
          "format": "double",
          "type": "number"
        }
      },
      "required": [
        "from",
        "to",
        "in_service",
        "pf",
        "pt",
        "qf",
        "qt",
        "vf",
        "vt",
        "pmin",
        "pmax",
        "qminf",
        "qmaxf",
        "qmint",
        "qmaxt",
        "loss0",
        "loss1",
        "extras"
      ],
      "type": "object"
    },
    "Impedance": {
      "description": "A series impedance with the MVA base it is expressed on. Used pairwise by\n[`Transformer3W`]; a self-contained unit so the base travels with the value\ninstead of being implied by position.\n\n`r`/`x` are per unit on the *system* base (the same `CZ = 1` convention as\n[`Branch::r`]/[`Branch::x`], so the matrix math needs no rebasing); `base_mva`\nrecords the winding-pair MVA base the source file declared (PSS/E `SBASE1-2`\nand friends), kept so a write-back reproduces it and so a future `CZ = 2`\nreader has somewhere to put the winding base it must rebase from. Room to grow\n(winding voltage base, turns-ratio units) as the transformer control work\nlands without reshaping the [`Transformer3W::z`] array.",
      "properties": {
        "base_mva": {
          "format": "double",
          "type": "number"
        },
        "r": {
          "format": "double",
          "type": "number"
        },
        "x": {
          "format": "double",
          "type": "number"
        }
      },
      "required": [
        "r",
        "x",
        "base_mva"
      ],
      "type": "object"
    },
    "Load": {
      "properties": {
        "bus": {
          "$ref": "#/$defs/BusId"
        },
        "extras": {
          "additionalProperties": true,
          "type": "object"
        },
        "in_service": {
          "type": "boolean"
        },
        "p": {
          "description": "Active demand (MW).",
          "format": "double",
          "type": "number"
        },
        "q": {
          "description": "Reactive demand (MVAr).",
          "format": "double",
          "type": "number"
        },
        "uid": {
          "description": "Stable row identity; see [`Bus::uid`].",
          "type": [
            "string",
            "null"
          ]
        },
        "voltage_model": {
          "anyOf": [
            {
              "$ref": "#/$defs/LoadVoltageModel"
            },
            {
              "type": "null"
            }
          ],
          "default": null,
          "description": "Voltage dependence, when the source states one. `None` is constant power."
        }
      },
      "required": [
        "bus",
        "p",
        "q",
        "in_service",
        "extras"
      ],
      "type": "object"
    },
    "LoadVoltageModel": {
      "description": "Voltage dependence for a transmission load.",
      "oneOf": [
        {
          "description": "Explicit constant power marker.",
          "properties": {
            "kind": {
              "const": "constant_power",
              "type": "string"
            }
          },
          "required": [
            "kind"
          ],
          "type": "object"
        },
        {
          "description": "ZIP load split in source units. The three active parts sum to\n[`Load::p`], and the three reactive parts sum to [`Load::q`].",
          "properties": {
            "kind": {
              "const": "zip",
              "type": "string"
            },
            "load_type": {
              "default": null,
              "description": "Source load type code, when a format has one (PSS/E `ID`/`LOADTYPE`\nstyle metadata).",
              "format": "int32",
              "type": [
                "integer",
                "null"
              ]
            },
            "p_constant_current": {
              "format": "double",
              "type": "number"
            },
            "p_constant_impedance": {
              "format": "double",
              "type": "number"
            },
            "p_constant_power": {
              "format": "double",
              "type": "number"
            },
            "q_constant_current": {
              "format": "double",
              "type": "number"
            },
            "q_constant_impedance": {
              "format": "double",
              "type": "number"
            },
            "q_constant_power": {
              "format": "double",
              "type": "number"
            },
            "scaling": {
              "default": null,
              "description": "Source scaling factor, when a format has one.",
              "format": "double",
              "type": [
                "number",
                "null"
              ]
            },
            "v_nom": {
              "default": null,
              "format": "double",
              "type": [
                "number",
                "null"
              ]
            }
          },
          "required": [
            "kind",
            "p_constant_power",
            "q_constant_power",
            "p_constant_current",
            "q_constant_current",
            "p_constant_impedance",
            "q_constant_impedance"
          ],
          "type": "object"
        },
        {
          "description": "Exponential voltage model: `P = p * (V / v_nom)^gamma_p`,\n`Q = q * (V / v_nom)^gamma_q`.",
          "properties": {
            "gamma_p": {
              "format": "double",
              "type": "number"
            },
            "gamma_q": {
              "format": "double",
              "type": "number"
            },
            "kind": {
              "const": "exponential",
              "type": "string"
            },
            "p": {
              "format": "double",
              "type": "number"
            },
            "q": {
              "format": "double",
              "type": "number"
            },
            "v_nom": {
              "default": null,
              "format": "double",
              "type": [
                "number",
                "null"
              ]
            }
          },
          "required": [
            "kind",
            "p",
            "q",
            "gamma_p",
            "gamma_q"
          ],
          "type": "object"
        }
      ]
    },
    "Location": {
      "description": "A point attached to one model element.",
      "properties": {
        "kind": {
          "anyOf": [
            {
              "$ref": "#/$defs/CoordsKind"
            },
            {
              "type": "null"
            }
          ],
          "description": "Per point provenance when it differs from the network default."
        },
        "x": {
          "description": "X coordinate. In geographic space this is longitude.",
          "format": "double",
          "type": "number"
        },
        "y": {
          "description": "Y coordinate. In geographic space this is latitude.",
          "format": "double",
          "type": "number"
        }
      },
      "required": [
        "x",
        "y"
      ],
      "type": "object"
    },
    "Shunt": {
      "properties": {
        "b": {
          "description": "Shunt susceptance (MVAr at V = 1 p.u.). For a switched shunt this is the\ninitial (steady-state) value within the [`control`](Shunt::control) blocks.",
          "format": "double",
          "type": "number"
        },
        "bus": {
          "$ref": "#/$defs/BusId"
        },
        "control": {
          "anyOf": [
            {
              "$ref": "#/$defs/SwitchedShuntControl"
            },
            {
              "type": "null"
            }
          ],
          "default": null,
          "description": "Switching-control data when this is a switched (adjustable) shunt; `None`\nfor a fixed shunt. `#[serde(default)]` so JSON written before the field\nexisted still deserializes."
        },
        "extras": {
          "additionalProperties": true,
          "type": "object"
        },
        "g": {
          "description": "Shunt conductance (MW at V = 1 p.u.).",
          "format": "double",
          "type": "number"
        },
        "in_service": {
          "type": "boolean"
        },
        "uid": {
          "description": "Stable row identity; see [`Bus::uid`].",
          "type": [
            "string",
            "null"
          ]
        }
      },
      "required": [
        "bus",
        "g",
        "b",
        "in_service",
        "extras"
      ],
      "type": "object"
    },
    "ShuntBlock": {
      "description": "One block of a switched shunt: `steps` equal increments of susceptance `b`.",
      "properties": {
        "b": {
          "description": "Susceptance increment per step (MVAr at V = 1 p.u.).",
          "format": "double",
          "type": "number"
        },
        "steps": {
          "format": "uint32",
          "minimum": 0,
          "type": "integer"
        }
      },
      "required": [
        "steps",
        "b"
      ],
      "type": "object"
    },
    "SolverParams": {
      "description": "Solver / solution-control metadata: the Newton tolerance and iteration cap,\nthe zero-impedance threshold, and the per-quantity adjustment-enable flags.\n\nEach field is optional because a source states only the ones it carries. No\npower flow physics, but it determines whether a downstream solver reproduces\nthe source tool's converged answer. Maps to the PSS/E v34+ system-wide block\n(`GENERAL THRSHZ`, `NEWTON TOLN`/`ITMXN`, `SOLVER ACTAPS`/`AREAIN`/`PHSHFT`/\n`DCTAPS`/`SWSHNT`).",
      "properties": {
        "adjust_area_interchange": {
          "description": "Whether the solver adjusts area interchange (`SOLVER AREAIN`).",
          "type": [
            "boolean",
            "null"
          ]
        },
        "adjust_dc_taps": {
          "description": "Whether the solver adjusts DC line taps (`SOLVER DCTAPS`).",
          "type": [
            "boolean",
            "null"
          ]
        },
        "adjust_phase_shift": {
          "description": "Whether the solver adjusts phase-shift angles (`SOLVER PHSHFT`).",
          "type": [
            "boolean",
            "null"
          ]
        },
        "adjust_switched_shunt": {
          "description": "Whether the solver adjusts switched shunts (`SOLVER SWSHNT`).",
          "type": [
            "boolean",
            "null"
          ]
        },
        "adjust_taps": {
          "description": "Whether the solver adjusts transformer taps (`SOLVER ACTAPS`).",
          "type": [
            "boolean",
            "null"
          ]
        },
        "max_iterations": {
          "description": "Newton iteration cap (`NEWTON ITMXN`).",
          "format": "uint32",
          "minimum": 0,
          "type": [
            "integer",
            "null"
          ]
        },
        "newton_tolerance": {
          "description": "Newton power flow mismatch tolerance (`NEWTON TOLN`).",
          "format": "double",
          "type": [
            "number",
            "null"
          ]
        },
        "zero_impedance_threshold": {
          "description": "Branches with `|x|` below this are treated as zero impedance (`GENERAL THRSHZ`).",
          "format": "double",
          "type": [
            "number",
            "null"
          ]
        }
      },
      "type": "object"
    },
    "SourceFormat": {
      "description": "Which format a [`Network`] was read from. Drives the same format byte exact\necho on write.",
      "oneOf": [
        {
          "enum": [
            "Matpower",
            "PowerModelsJson",
            "EgretJson",
            "Psse",
            "PowerWorld",
            "PandapowerJson"
          ],
          "type": "string"
        },
        {
          "const": "Pslf",
          "description": "Read from a GE PSLF `.epc` case. Same source text is retained, so a\nsame-format write echoes it byte-for-byte; a cross-format or\nsource-dropped write goes through the `.epc` serializer\n([`write_pslf`](crate::write_pslf)).",
          "type": "string"
        },
        {
          "const": "PowerWorldBinary",
          "description": "Read from a PowerWorld `.pwb` binary case. Read only: there is no\n`.pwb` writer and no retained source text, so writing goes through\nanother format's writer.",
          "type": "string"
        },
        {
          "const": "InMemory",
          "description": "Built in memory, for example from synth or an edited case; no source text.",
          "type": "string"
        },
        {
          "const": "Normalized",
          "description": "A normalized derived form ([`Network::to_normalized`]): per unit, radians,\nfiltered, source bus ids preserved. Distinct from\n[`InMemory`](SourceFormat::InMemory) so consumers can tell a per unit\nproduct from a raw in memory network; it has no source text and a different\nunit basis than a parsed network.",
          "type": "string"
        },
        {
          "const": "Gridfm",
          "description": "Read back from a gridfm-datakit Parquet dataset (the ML→classical bridge,\n`powerio-matrix`'s `read_gridfm_dataset`). A lossy, power flow complete\nreconstruction with no retained source text: original bus ids are\nsynthesized `1..n`, per element load/shunt granularity is folded to one\nsynthetic element per bus, and HVDC/storage/piecewise costs are absent.",
          "type": "string"
        },
        {
          "const": "PypsaCsv",
          "description": "Read from a PyPSA CSV folder. This is a folder format rather than a\nsingle retained text document, so same-format writes are canonicalized.",
          "type": "string"
        },
        {
          "const": "Goc3Json",
          "description": "Read from an ARPA-E GO Challenge 3 JSON input document. The source is a\nunit commitment data set; the neutral transmission model keeps a static\nfirst interval network and retains the source text for the full data.",
          "type": "string"
        },
        {
          "const": "SurgeJson",
          "description": "Read from a Surge native JSON document.",
          "type": "string"
        },
        {
          "const": "Dgs",
          "description": "Read from a DIgSILENT PowerFactory DGS ASCII case (`.dgs`, versions\n5/6/7). The reader retains the decoded source text, so a same-format write\nechoes it (byte-for-byte for a UTF-8 source; decoded-normalized for a\nLatin-1 or UTF-16 source); a cross-format or source-dropped write goes\nthrough the DGS 7.0 serializer ([`write_dgs`](crate::write_dgs)).",
          "type": "string"
        }
      ]
    },
    "Storage": {
      "properties": {
        "bus": {
          "$ref": "#/$defs/BusId"
        },
        "charge_efficiency": {
          "format": "double",
          "type": "number"
        },
        "charge_rating": {
          "format": "double",
          "type": "number"
        },
        "current_rating": {
          "default": null,
          "format": "double",
          "type": [
            "number",
            "null"
          ]
        },
        "discharge_efficiency": {
          "format": "double",
          "type": "number"
        },
        "discharge_rating": {
          "format": "double",
          "type": "number"
        },
        "energy": {
          "format": "double",
          "type": "number"
        },
        "energy_rating": {
          "format": "double",
          "type": "number"
        },
        "extras": {
          "additionalProperties": true,
          "type": "object"
        },
        "in_service": {
          "type": "boolean"
        },
        "p_loss": {
          "format": "double",
          "type": "number"
        },
        "ps": {
          "format": "double",
          "type": "number"
        },
        "q_loss": {
          "format": "double",
          "type": "number"
        },
        "qmax": {
          "format": "double",
          "type": "number"
        },
        "qmin": {
          "format": "double",
          "type": "number"
        },
        "qs": {
          "format": "double",
          "type": "number"
        },
        "r": {
          "format": "double",
          "type": "number"
        },
        "thermal_rating": {
          "format": "double",
          "type": "number"
        },
        "uid": {
          "description": "Stable row identity; see [`Bus::uid`].",
          "type": [
            "string",
            "null"
          ]
        },
        "x": {
          "format": "double",
          "type": "number"
        }
      },
      "required": [
        "bus",
        "ps",
        "qs",
        "energy",
        "energy_rating",
        "charge_rating",
        "discharge_rating",
        "charge_efficiency",
        "discharge_efficiency",
        "thermal_rating",
        "qmin",
        "qmax",
        "r",
        "x",
        "p_loss",
        "q_loss",
        "in_service",
        "extras"
      ],
      "type": "object"
    },
    "Switch": {
      "description": "A transmission switch. Closed switches are preserved as data; matrix builders\ndo not lower them into zero impedance branches.",
      "properties": {
        "closed": {
          "type": "boolean"
        },
        "current_rating": {
          "default": null,
          "format": "double",
          "type": [
            "number",
            "null"
          ]
        },
        "extras": {
          "additionalProperties": true,
          "type": "object"
        },
        "from": {
          "$ref": "#/$defs/BusId"
        },
        "pf": {
          "default": null,
          "format": "double",
          "type": [
            "number",
            "null"
          ]
        },
        "pt": {
          "default": null,
          "format": "double",
          "type": [
            "number",
            "null"
          ]
        },
        "qf": {
          "default": null,
          "format": "double",
          "type": [
            "number",
            "null"
          ]
        },
        "qt": {
          "default": null,
          "format": "double",
          "type": [
            "number",
            "null"
          ]
        },
        "thermal_rating": {
          "default": null,
          "format": "double",
          "type": [
            "number",
            "null"
          ]
        },
        "to": {
          "$ref": "#/$defs/BusId"
        },
        "uid": {
          "description": "Stable row identity; see [`Bus::uid`].",
          "type": [
            "string",
            "null"
          ]
        }
      },
      "required": [
        "from",
        "to",
        "closed",
        "extras"
      ],
      "type": "object"
    },
    "SwitchedShuntControl": {
      "description": "Switching-control data for a switched shunt ([`Shunt::control`]): the mode,\nthe regulated voltage band and bus, the reactive-range percentage, and the\nadjustable susceptance blocks. The shunt's [`b`](Shunt::b) is the initial\nvalue within the blocks' total range.",
      "properties": {
        "blocks": {
          "items": {
            "$ref": "#/$defs/ShuntBlock"
          },
          "type": "array"
        },
        "control_bus": {
          "anyOf": [
            {
              "$ref": "#/$defs/BusId"
            },
            {
              "type": "null"
            }
          ],
          "description": "The regulated bus; `None` means the shunt regulates its own bus."
        },
        "mode": {
          "$ref": "#/$defs/SwitchedShuntMode"
        },
        "rmpct": {
          "description": "Percent of the controlled device's reactive range to apply (PSS/E `RMPCT`).",
          "format": "double",
          "type": "number"
        },
        "vhigh": {
          "description": "Regulated voltage band (per unit).",
          "format": "double",
          "type": "number"
        },
        "vlow": {
          "format": "double",
          "type": "number"
        }
      },
      "required": [
        "mode",
        "vhigh",
        "vlow",
        "rmpct",
        "blocks"
      ],
      "type": "object"
    },
    "SwitchedShuntMode": {
      "description": "How a switched shunt adjusts its susceptance. Maps to the PSS/E `MODSW` code.",
      "oneOf": [
        {
          "const": "locked",
          "description": "Fixed at its initial susceptance, no automatic switching (`MODSW` 0).",
          "type": "string"
        },
        {
          "const": "continuous",
          "description": "Continuous adjustment within the block range (`MODSW` 1).",
          "type": "string"
        },
        {
          "const": "discrete",
          "description": "Discrete adjustment in fixed steps (`MODSW` 2 and up).",
          "type": "string"
        }
      ]
    },
    "Transformer3W": {
      "description": "A three-winding transformer: three terminal buses joined at a common star\npoint, with the series impedance given pairwise (winding 1-2, 2-3, 3-1).\n\nKept as a typed record (not three [`Branch`]es) so the star-point voltage and\nthe per-winding control data survive a same-format round trip. Both the PSS/E\n3-winding record and the PSLF tertiary-winding record map onto it.\n[`star_expansion`](Transformer3W::star_expansion) turns it into the synthetic\nstar bus plus three branches for a consumer that works in the bus-branch model;\n[`IndexedNetwork`](crate::IndexedNetwork) applies it before building any matrix,\nso a 3-winding transformer contributes to `Y_bus` and connectivity.",
      "properties": {
        "extras": {
          "additionalProperties": true,
          "type": "object"
        },
        "in_service": {
          "type": "boolean"
        },
        "mag_b": {
          "format": "double",
          "type": "number"
        },
        "mag_g": {
          "description": "Magnetizing shunt referred to the star point (p.u. on the system base).",
          "format": "double",
          "type": "number"
        },
        "name": {
          "type": [
            "string",
            "null"
          ]
        },
        "star_va": {
          "format": "double",
          "type": "number"
        },
        "star_vm": {
          "description": "Star-point voltage magnitude (p.u.) and angle (degrees), as solved.",
          "format": "double",
          "type": "number"
        },
        "uid": {
          "description": "Stable row identity; see [`Bus::uid`].",
          "type": [
            "string",
            "null"
          ]
        },
        "windings": {
          "description": "The three windings, in order (primary, secondary, tertiary).",
          "items": {
            "$ref": "#/$defs/Winding"
          },
          "maxItems": 3,
          "minItems": 3,
          "type": "array"
        },
        "z": {
          "description": "Pairwise series impedance `[z12, z23, z31]` (primary-secondary,\nsecondary-tertiary, tertiary-primary), each per unit on the system base\nwith its declared MVA base.",
          "items": {
            "$ref": "#/$defs/Impedance"
          },
          "maxItems": 3,
          "minItems": 3,
          "type": "array"
        }
      },
      "required": [
        "windings",
        "z",
        "star_vm",
        "star_va",
        "mag_g",
        "mag_b",
        "in_service",
        "extras"
      ],
      "type": "object"
    },
    "TransformerControl": {
      "description": "Automatic-control data for a regulating transformer ([`Branch::control`]).\n\nThe limits carry whatever the [`mode`](TransformerControl::mode) regulates:\n`tap_min`/`tap_max` bound the tap ratio (or the phase angle, for\n[`ActiveFlow`](TransformerControlMode::ActiveFlow)), and `band_min`/`band_max`\nbound the controlled quantity (the regulated voltage band, or the\nscheduled MW/MVAr). `ntp` is the number of discrete tap positions and\n`controlled_bus` is the regulated bus (`None` = the transformer's own\nterminal). `mva_base` is the winding MVA base the impedance is referred to.",
      "properties": {
        "band_max": {
          "format": "double",
          "type": "number"
        },
        "band_min": {
          "format": "double",
          "type": "number"
        },
        "controlled_bus": {
          "anyOf": [
            {
              "$ref": "#/$defs/BusId"
            },
            {
              "type": "null"
            }
          ]
        },
        "mode": {
          "$ref": "#/$defs/TransformerControlMode"
        },
        "mva_base": {
          "format": "double",
          "type": "number"
        },
        "ntp": {
          "format": "uint32",
          "minimum": 0,
          "type": "integer"
        },
        "tap_max": {
          "format": "double",
          "type": "number"
        },
        "tap_min": {
          "format": "double",
          "type": "number"
        }
      },
      "required": [
        "mode",
        "tap_min",
        "tap_max",
        "band_min",
        "band_max",
        "ntp",
        "mva_base"
      ],
      "type": "object"
    },
    "TransformerControlMode": {
      "description": "What a regulating transformer's tap (or phase shift) automatically controls.\nMaps to the PSS/E control code `COD` and the PSLF transformer `type`.",
      "oneOf": [
        {
          "const": "fixed",
          "description": "Fixed ratio, no automatic adjustment (PSS/E `COD` 0/±4, PSLF type 1).",
          "type": "string"
        },
        {
          "const": "voltage",
          "description": "Bus voltage control via tap (LTC; PSS/E `COD` ±1, PSLF type 2).",
          "type": "string"
        },
        {
          "const": "reactive_flow",
          "description": "Reactive power flow control via tap (PSS/E `COD` ±2).",
          "type": "string"
        },
        {
          "const": "active_flow",
          "description": "Active power flow control via phase shift (PSS/E `COD` ±3, PSLF type 4).",
          "type": "string"
        }
      ]
    },
    "Winding": {
      "description": "One winding of a [`Transformer3W`]: its terminal bus, off-nominal ratio, phase\nshift, nominal voltage, and thermal ratings.",
      "properties": {
        "bus": {
          "$ref": "#/$defs/BusId"
        },
        "nominal_kv": {
          "description": "Winding nominal voltage (kV); 0 defers to the terminal bus base kV.",
          "format": "double",
          "type": "number"
        },
        "rate_a": {
          "format": "double",
          "type": "number"
        },
        "rate_b": {
          "format": "double",
          "type": "number"
        },
        "rate_c": {
          "format": "double",
          "type": "number"
        },
        "shift": {
          "description": "Phase shift (degrees).",
          "format": "double",
          "type": "number"
        },
        "tap": {
          "description": "Off-nominal turns ratio (1.0 = nominal); the PSS/E `WINDV`, `CW = 1`.",
          "format": "double",
          "type": "number"
        }
      },
      "required": [
        "bus",
        "tap",
        "shift",
        "nominal_kv",
        "rate_a",
        "rate_b",
        "rate_c"
      ],
      "type": "object"
    }
  },
  "$id": "https://powerio.dev/schema/pio-payload-balanced/1",
  "$schema": "https://json-schema.org/draft/2020-12/schema",
  "description": "A format-neutral power network.",
  "properties": {
    "areas": {
      "default": [],
      "description": "Area records: scheduled interchange and per-area swing bus. Distinct from\nthe bare `area` number on each [`Bus`]; this is the area's metadata, which\nevery conversion dropped before. `#[serde(default)]` so older JSON still\ndeserializes.",
      "items": {
        "$ref": "#/$defs/Area"
      },
      "type": "array"
    },
    "base_frequency": {
      "default": 60.0,
      "description": "System base frequency in hertz (50 or 60). Threaded through the formats\nthat record it (PSS/E `BASFRQ`, pandapower `f_hz`) and defaulted to\n[`DEFAULT_BASE_FREQUENCY`] for the rest. Load-bearing for any\nreactance↔henry conversion (pandapower line charging) and reported as a\nfidelity loss when a non-default value writes to a format with no\nfrequency field.",
      "format": "double",
      "type": "number"
    },
    "base_mva": {
      "format": "double",
      "type": "number"
    },
    "branches": {
      "items": {
        "$ref": "#/$defs/Branch"
      },
      "type": "array"
    },
    "buses": {
      "items": {
        "$ref": "#/$defs/Bus"
      },
      "type": "array"
    },
    "generators": {
      "items": {
        "$ref": "#/$defs/Generator"
      },
      "type": "array"
    },
    "geo": {
      "anyOf": [
        {
          "$ref": "#/$defs/GeoMeta"
        },
        {
          "type": "null"
        }
      ]
    },
    "hvdc": {
      "items": {
        "$ref": "#/$defs/Hvdc"
      },
      "type": "array"
    },
    "loads": {
      "items": {
        "$ref": "#/$defs/Load"
      },
      "type": "array"
    },
    "name": {
      "type": "string"
    },
    "shunts": {
      "items": {
        "$ref": "#/$defs/Shunt"
      },
      "type": "array"
    },
    "solver": {
      "anyOf": [
        {
          "$ref": "#/$defs/SolverParams"
        },
        {
          "type": "null"
        }
      ],
      "default": null,
      "description": "Solver / solution-control metadata when the source carries it, else `None`.\n`#[serde(default)]` so older JSON still deserializes."
    },
    "source_format": {
      "$ref": "#/$defs/SourceFormat"
    },
    "storage": {
      "items": {
        "$ref": "#/$defs/Storage"
      },
      "type": "array"
    },
    "switches": {
      "default": [],
      "items": {
        "$ref": "#/$defs/Switch"
      },
      "type": "array"
    },
    "transformers_3w": {
      "default": [],
      "description": "Three-winding transformers, kept as typed records rather than folded into\n`branches`, so a star point and the per-winding data survive a round trip.\n`#[serde(default)]` so JSON written before the field existed still\ndeserializes. [`IndexedNetwork`](crate::IndexedNetwork) lowers each\nin-service record into a star bus plus three branches (via\n[`Transformer3W::star_expansion`]) before building any matrix, so a\n3-winding transformer does appear in `Y_bus`/connectivity; the canonical\nmodel keeps the typed record for round-trip fidelity.",
      "items": {
        "$ref": "#/$defs/Transformer3W"
      },
      "type": "array"
    }
  },
  "required": [
    "name",
    "base_mva",
    "buses",
    "loads",
    "shunts",
    "branches",
    "generators",
    "storage",
    "hvdc",
    "source_format"
  ],
  "title": "Network",
  "type": "object"
}
